Version 4
SHEET 1 880 708
WIRE -96 80 -112 80
WIRE -16 80 -32 80
WIRE -256 112 -304 112
WIRE -224 112 -256 112
WIRE -112 112 -112 80
WIRE -112 112 -144 112
WIRE -16 112 -16 80
WIRE 32 112 -16 112
WIRE 96 112 32 112
WIRE 352 112 96 112
WIRE 464 112 416 112
WIRE 464 128 464 112
WIRE -112 144 -112 112
WIRE -96 144 -112 144
WIRE -16 144 -16 112
WIRE -16 144 -32 144
WIRE 32 144 32 112
WIRE -304 176 -304 112
WIRE 352 176 336 176
WIRE 432 176 416 176
WIRE -96 224 -112 224
WIRE -16 224 -32 224
WIRE 336 240 336 176
WIRE 336 240 304 240
WIRE 432 240 432 176
WIRE 528 240 432 240
WIRE 640 240 608 240
WIRE 704 240 640 240
WIRE -112 256 -112 224
WIRE -112 256 -144 256
WIRE -16 256 -16 224
WIRE 32 256 32 224
WIRE 32 256 -16 256
WIRE 80 256 32 256
WIRE -304 288 -304 256
WIRE -144 288 -144 256
WIRE -112 288 -112 256
WIRE -96 288 -112 288
WIRE -16 288 -16 256
WIRE -16 288 -32 288
WIRE -576 464 -672 464
WIRE -464 464 -496 464
WIRE -416 464 -464 464
WIRE -672 480 -672 464
WIRE -464 512 -464 464
WIRE 144 512 144 464
WIRE 144 512 128 512
WIRE 160 512 144 512
WIRE 208 512 160 512
WIRE 352 512 208 512
WIRE 464 512 416 512
WIRE -16 528 -16 512
WIRE 464 528 464 512
WIRE -16 544 -16 528
WIRE 336 576 336 240
WIRE 352 576 336 576
WIRE 640 576 640 240
WIRE 640 576 416 576
WIRE -64 608 -160 608
FLAG 464 128 0
FLAG -304 288 0
FLAG -256 112 Tx
FLAG 96 112 TxRx
FLAG -144 288 0
FLAG 80 256 Rx
FLAG 464 528 0
FLAG 208 592 0
FLAG -16 624 0
FLAG -160 688 0
FLAG 160 576 0
FLAG -352 464 0
FLAG -464 592 0
FLAG -672 560 0
SYMBOL PiezoElement 384 144 R0
WINDOW 0 1 63 Center 0
SYMATTR InstName X1
SYMATTR Value L=0.5m S=1e-4
SYMBOL SubstFin 576 240 R0
WINDOW 0 -2 -57 Center 0
SYMATTR InstName X3
SYMBOL SubstInf 752 240 R0
WINDOW 0 -3 -59 Center 0
SYMATTR InstName X4
SYMATTR Value2 d=7.9K V=5.17K
SYMBOL SubstInf 256 240 M0
WINDOW 0 -2 -59 Center 0
SYMATTR InstName X2
SYMATTR Value2 d=7.9K V=5.17K
SYMBOL Misc\\signal -304 160 R0
WINDOW 3 -44 175 Left 0
WINDOW 123 24 44 Left 2
WINDOW 39 0 0 Left 0
SYMATTR Value SINE(0 10 4.3Meg)
SYMATTR Value2 AC 100
SYMATTR InstName V1
SYMBOL res -128 96 R90
WINDOW 0 -5 60 VBottom 0
WINDOW 3 37 63 VTop 0
SYMATTR InstName R1
SYMATTR Value 100
SYMBOL diode -32 64 R90
WINDOW 0 9 60 VBottom 0
WINDOW 3 22 6 VTop 0
SYMATTR InstName D1
SYMBOL diode -96 128 M90
WINDOW 0 11 6 VBottom 0
WINDOW 3 23 57 VTop 0
SYMATTR InstName D2
SYMBOL res 16 128 R0
WINDOW 0 43 46 Left 0
SYMATTR InstName R2
SYMATTR Value 100K
SYMBOL diode -32 208 R90
WINDOW 0 9 60 VBottom 0
WINDOW 3 22 6 VTop 0
SYMATTR InstName D3
SYMBOL diode -96 272 M90
WINDOW 0 11 6 VBottom 0
WINDOW 3 23 57 VTop 0
SYMATTR InstName D4
SYMBOL PiezoElement 384 544 R0
WINDOW 0 1 63 Center 0
SYMATTR InstName X5
SYMATTR Value L=0.5m S=1e-4
SYMBOL res 192 496 R0
WINDOW 0 43 46 Left 0
SYMATTR InstName R3
SYMATTR Value 1Meg
SYMBOL voltage -160 592 R0
WINDOW 123 0 0 Left 0
WINDOW 39 0 0 Left 0
SYMATTR InstName V2
SYMATTR Value 0
SYMBOL cap 128 496 R90
WINDOW 0 0 32 VBottom 2
WINDOW 3 32 32 VTop 2
SYMATTR InstName C1
SYMATTR Value 1µ
SYMATTR SpiceLine V=200 Irms=0 Rser=0 Lser=0
SYMBOL nmos -64 528 R0
SYMATTR InstName M1
SYMATTR Value IRF2805S
SYMBOL cap 144 512 R0
SYMATTR InstName C2
SYMATTR Value 13p
SYMBOL voltage -672 464 R0
WINDOW 123 0 0 Left 0
WINDOW 39 0 0 Left 0
SYMATTR InstName V3
SYMATTR Value SINE(0 1.5 4.2Meg)
SYMBOL res -480 448 R90
WINDOW 0 0 56 VBottom 2
WINDOW 3 32 56 VTop 2
SYMATTR InstName R4
SYMATTR Value 1
SYMBOL res -448 608 R180
WINDOW 0 36 76 Left 2
WINDOW 3 36 40 Left 2
SYMATTR InstName R5
SYMATTR Value 100Meg
SYMBOL cap -352 448 R90
WINDOW 0 0 32 VBottom 2
WINDOW 3 32 32 VTop 2
SYMATTR InstName C3
SYMATTR Value 10n
TEXT 240 160 Left 0 ;Iron
TEXT 552 160 Left 0 ;Water
TEXT -32 336 Left 0 !;tran 0 50u 0 0.5n
TEXT 424 88 Left 0 ;PZT-5
TEXT 728 160 Left 0 ;Iron
TEXT -104 408 Left 2 !.tran 1u
RECTANGLE Normal 848 320 160 144 2
